units(length='cm', time='s', quantity='mol', act_energy='cal/mol')

ideal_gas(name='ch4_jl_mix',
          elements="O H C N",
          species="""CH4  O2   H2O  CO2  OH   CO   H2   O    H    N2""",
          reactions='all',
          transport='Mix',
          initial_state=state(temperature=300.0, pressure=OneAtm))

ideal_gas(name='ch4_jl_multi',
          elements="O H C N",
          species="""CH4  O2   H2O  CO2  OH   CO   H2   O    H    N2""",
          reactions='all',
          transport='Multi',
          initial_state=state(temperature=300.0, pressure=OneAtm))
#-------------------------------------------------------------------------------
# Species data
#-------------------------------------------------------------------------------

species(name=u'CH4',
        atoms='H:4 C:1',
        thermo=(NASA([200.00, 1000.00],
                     [ 5.14825732E+00, -1.37002410E-02,  4.93749414E-05,
                      -4.91952339E-08,  1.70097299E-11, -1.02453222E+04,
                      -4.63322726E+00]),
                NASA([1000.00, 6000.00],
                     [ 1.91178600E+00,  9.60267960E-03, -3.38387841E-06,
                       5.38797240E-10, -3.19306807E-14, -1.00992136E+04,
                       8.48241861E+00])),
        transport=gas_transport(geom='nonlinear',
                                diam=3.746,
                                well_depth=141.4,
                                polar=2.6,
                                rot_relax=13.0),
        note=u'RRHOg8/99')

species(name=u'O2',
        atoms='O:2',
        thermo=(NASA([200.00, 1000.00],
                     [ 3.78245636E+00, -2.99673415E-03,  9.84730200E-06,
                      -9.68129508E-09,  3.24372836E-12, -1.06394356E+03,
                       3.65767573E+00]),
                NASA([1000.00, 6000.00],
                     [ 3.66096083E+00,  6.56365523E-04, -1.41149485E-07,
                       2.05797658E-11, -1.29913248E-15, -1.21597725E+03,
                       3.41536184E+00])),
        transport=gas_transport(geom='linear',
                                diam=3.458,
                                well_depth=107.4,
                                polar=1.6,
                                rot_relax=3.8),
        note=u'REFELEMENTRUS89')

species(name=u'H2O',
        atoms='H:2 O:1',
        thermo=(NASA([200.00, 1000.00],
                     [ 4.19863520E+00, -2.03640170E-03,  6.52034160E-06,
                      -5.48792690E-09,  1.77196800E-12, -3.02937260E+04,
                      -8.49009010E-01]),
                NASA([1000.00, 6000.00],
                     [ 2.67703890E+00,  2.97318160E-03, -7.73768890E-07,
                       9.44335140E-11, -4.26899910E-15, -2.98858940E+04,
                       6.88255000E+00])),
        transport=gas_transport(geom='nonlinear',
                                diam=2.605,
                                well_depth=572.4,
                                dipole=1.844,
                                rot_relax=4.0),
        note=u'L5/89')

species(name=u'CO2',
        atoms='C:1 O:2',
        thermo=(NASA([200.00, 1000.00],
                     [ 2.35681300E+00,  8.98412990E-03, -7.12206320E-06,
                       2.45730080E-09, -1.42885480E-13, -4.83719710E+04,
                       9.90090350E+00]),
                NASA([1000.00, 6000.00],
                     [ 4.63651110E+00,  2.74145690E-03, -9.95897590E-07,
                       1.60386660E-10, -9.16198570E-15, -4.90249040E+04,
                      -1.93489550E+00])),
        transport=gas_transport(geom='linear',
                                diam=3.763,
                                well_depth=244.0,
                                polar=2.65,
                                rot_relax=2.1),
        note=u'L7/88')

species(name=u'OH',
        atoms='H:1 O:1',
        thermo=(NASA([200.00, 1000.00],
                     [ 3.99198424E+00, -2.40106655E-03,  4.61664033E-06,
                      -3.87916306E-09,  1.36319502E-12,  3.37165248E+03,
                      -1.03814059E-01]),
                NASA([1000.00, 6000.00],
                     [ 2.83853033E+00,  1.10741289E-03, -2.94000209E-07,
                       4.20698729E-11, -2.42289890E-15,  3.70056220E+03,
                       5.84513094E+00])),
        transport=gas_transport(geom='linear',
                                diam=2.75,
                                well_depth=80.0),
        note=u'HYDROXYLRADIIU3/03')

species(name=u'CO',
        atoms='C:1 O:1',
        thermo=(NASA([200.00, 1000.00],
                     [ 3.57953350E+00, -6.10353690E-04,  1.01681430E-06,
                       9.07005860E-10, -9.04424490E-13, -1.43440860E+04,
                       3.50840930E+00]),
                NASA([1000.00, 6000.00],
                     [ 3.04848590E+00,  1.35172810E-03, -4.85794050E-07,
                       7.88536440E-11, -4.69807460E-15, -1.42661170E+04,
                       6.01709770E+00])),
        transport=gas_transport(geom='linear',
                                diam=3.65,
                                well_depth=98.1,
                                polar=1.95,
                                rot_relax=1.8),
        note=u'RUS79')

species(name=u'H2',
        atoms='H:2',
        thermo=(NASA([200.00, 1000.00],
                     [ 2.34430290E+00,  7.98042480E-03, -1.94779170E-05,
                       2.01569670E-08, -7.37602890E-12, -9.17924130E+02,
                       6.83002180E-01]),
                NASA([1000.00, 6000.00],
                     [ 2.93283050E+00,  8.26598020E-04, -1.46400570E-07,
                       1.54098510E-11, -6.88796150E-16, -8.13055820E+02,
                      -1.02431640E+00])),
        transport=gas_transport(geom='linear',
                                diam=2.92,
                                well_depth=38.0,
                                polar=0.79,
                                rot_relax=280.0),
        note=u'REFELEMENTRUS78')

species(name=u'O',
        atoms='O:1',
        thermo=(NASA([200.00, 1000.00],
                     [ 3.16826710E+00, -3.27931884E-03,  6.64306396E-06,
                      -6.12806624E-09,  2.11265971E-12,  2.91222592E+04,
                       2.05193346E+00]),
                NASA([1000.00, 6000.00],
                     [ 2.54363697E+00, -2.73162486E-05, -4.19029520E-09,
                       4.95481845E-12, -4.79553694E-16,  2.92260120E+04,
                       4.92229457E+00])),
        transport=gas_transport(geom='atom',
                                diam=2.75,
                                well_depth=80.0),
        note=u'L1/90')

species(name=u'H',
        atoms='H:1',
        thermo=(NASA([200.00, 1000.00],
                     [ 2.50000000E+00,  0.00000000E+00,  0.00000000E+00,
                       0.00000000E+00,  0.00000000E+00,  2.54736600E+04,
                      -4.46682850E-01]),
                NASA([1000.00, 6000.00],
                     [ 2.50000000E+00,  0.00000000E+00,  0.00000000E+00,
                       0.00000000E+00,  0.00000000E+00,  2.54736600E+04,
                      -4.46682850E-01])),
        transport=gas_transport(geom='atom',
                                diam=2.05,
                                well_depth=145.0),
        note=u'L6/94')

species(name=u'N2',
        atoms='N:2',
        thermo=(NASA([200.00, 1000.00],
                     [ 3.53100528E+00, -1.23660988E-04, -5.02999433E-07,
                       2.43530612E-09, -1.40881235E-12, -1.04697628E+03,
                       2.96747038E+00]),
                NASA([1000.00, 6000.00],
                     [ 2.95257637E+00,  1.39690040E-03, -4.92631603E-07,
                       7.86010195E-11, -4.60755204E-15, -9.23948688E+02,
                       5.87188762E+00])),
        transport=gas_transport(geom='linear',
                                diam=3.621,
                                well_depth=97.53,
                                polar=1.76,
                                rot_relax=4.0),
        note=u'BUR0302G8/02')

#-------------------------------------------------------------------------------
# Reaction data
#-------------------------------------------------------------------------------

# Reaction 1
reaction('CH4 + 0.5 O2 => CO + 2 H2', [9.680000e+11, 0.0, 30000.0],
         order='CH4:0.5 O2:1.30')

# Reaction 2
reaction('CH4 + H2O => CO + 3 H2', [3.840000e+12, 0.0, 30000.0])

# Reaction 3
reaction('CO + H2O <=> CO2 + H2', [2.010000e+12, 0.0, 20000.0])

# Reaction 4
reaction('H2 + 0.5 O2 <=> H2O', [2.540000e+18, -1.0, 40000.0],
         order='H2:0.3 O2:1.55')

# Reaction 5
reaction('O2 <=> 2 O', [1.500000e+09, 0.0, 113000.0])

# Reaction 6
reaction('H2O <=> H + OH', [2.300000e+22, -3.0, 120000.0])
